[Format]      =  4.0
[Frequency]   =  0
[Precision]   =  1e-008
[MinAngle]    =  30
[DoSmartMesh] =  1
[Depth]       =  20
[LengthUnits] =  millimeters
[ProblemType] =  planar
[Coordinates] =  cartesian
[ACSolver]    =  0
[PrevType]    =  0
[PrevSoln]    =  ""
[Comment]     =  "Add comments here."
[PointProps]   = 0
[BdryProps]   = 2
  <BeginBdry>
    <BdryName> = "myAirGap"
    <BdryType> = 7
    <A_0> = 0
    <A_1> = 0
    <A_2> = 0
    <Phi> = 0
    <c0> = 0
    <c0i> = 0
    <c1> = 0
    <c1i> = 0
    <Mu_ssd> = 0
    <Sigma_ssd> = 0
    <innerangle> = 0
    <outerangle> = 0
  <EndBdry>
  <BeginBdry>
    <BdryName> = "A"
    <BdryType> = 0
    <A_0> = 0
    <A_1> = 0
    <A_2> = 0
    <Phi> = 0
    <c0> = 0
    <c0i> = 0
    <c1> = 0
    <c1i> = 0
    <Mu_ssd> = 0
    <Sigma_ssd> = 0
    <innerangle> = 0
    <outerangle> = 0
  <EndBdry>
[BlockProps]  = 5
  <BeginBlock>
    <BlockName> = "Air"
    <Mu_x> = 1
    <Mu_y> = 1
    <H_c> = 0
    <H_cAngle> = 0
    <J_re> = 0
    <J_im> = 0
    <Sigma> = 0
    <d_lam> = 0
    <Phi_h> = 0
    <Phi_hx> = 0
    <Phi_hy> = 0
    <LamType> = 0
    <LamFill> = 1
    <NStrands> = 0
    <WireD> = 0
    <BHPoints> = 0
  <EndBlock>
  <BeginBlock>
    <BlockName> = "M-19 Steel"
    <Mu_x> = 4416
    <Mu_y> = 4416
    <H_c> = 0
    <H_cAngle> = 0
    <J_re> = 0
    <J_im> = 0
    <Sigma> = 1.8999999999999999
    <d_lam> = 0.63500000000000001
    <Phi_h> = 0
    <Phi_hx> = 0
    <Phi_hy> = 0
    <LamType> = 0
    <LamFill> = 0.97999999999999998
    <NStrands> = 0
    <WireD> = 0
    <BHPoints> = 47
      0	0
      0.050000000000000003	15.120714
      0.10000000000000001	22.718292000000002
      0.14999999999999999	27.842732999999999
      0.20000000000000001	31.871434000000001
      0.25	35.365043999999997
      0.29999999999999999	38.600588000000002
      0.34999999999999998	41.736201999999999
      0.40000000000000002	44.873978999999999
      0.45000000000000001	48.087806999999998
      0.5	51.437235999999999
      0.55000000000000004	54.975220999999998
      0.59999999999999998	58.752992999999996
      0.65000000000000002	62.823644000000002
      0.69999999999999996	67.245284999999996
      0.75	72.084406000000001
      0.80000000000000004	77.420100000000005
      0.84999999999999998	83.350020999999998
      0.90000000000000002	89.999611999999999
      0.94999999999999996	97.537352999999996
      1	106.20140600000001
      1.05	116.34846400000001
      1.1000000000000001	128.54732899999999
      1.1499999999999999	143.76543100000001
      1.2	163.75416899999999
      1.25	191.86815799999999
      1.3	234.833507
      1.3500000000000001	306.50976900000001
      1.3999999999999999	435.255202
      1.45	674.911968
      1.5	1108.3255690000001
      1.55	1813.085468
      1.6000000000000001	2801.2174209999998
      1.6499999999999999	4053.6531169999998
      1.7	5591.10689
      1.75	7448.318413
      1.8	9708.81567
      1.8500000000000001	12486.931615
      1.8999999999999999	16041.483644
      1.95	21249.420623999998
      2	31313.495878000002
      2.0499999999999998	53589.446877000002
      2.1000000000000001	88477.484601000004
      2.1499999999999999	124329.41054
      2.2000000000000002	159968.5693
      2.25	197751.604272
      2.2999999999999998	234024.75134700001
  <EndBlock>
  <BeginBlock>
    <BlockName> = "18 AWG"
    <Mu_x> = 1
    <Mu_y> = 1
    <H_c> = 0
    <H_cAngle> = 0
    <J_re> = 0
    <J_im> = 0
    <Sigma> = 58
    <d_lam> = 0
    <Phi_h> = 0
    <Phi_hx> = 0
    <Phi_hy> = 0
    <LamType> = 3
    <LamFill> = 1
    <NStrands> = 1
    <WireD> = 1.0239652968433499
    <BHPoints> = 0
  <EndBlock>
  <BeginBlock>
    <BlockName> = "MN100"
    <Mu_x> = 9000
    <Mu_y> = 9000
    <H_c> = 0
    <H_cAngle> = 0
    <J_re> = 0
    <J_im> = 0
    <Sigma> = 0
    <d_lam> = 0
    <Phi_h> = 0
    <Phi_hx> = 0
    <Phi_hy> = 0
    <LamType> = 0
    <LamFill> = 1
    <NStrands> = 0
    <WireD> = 0
    <BHPoints> = 0
  <EndBlock>
  <BeginBlock>
    <BlockName> = "Aluminum, 6061-T6"
    <Mu_x> = 1
    <Mu_y> = 1
    <H_c> = 0
    <H_cAngle> = 0
    <J_re> = 0
    <J_im> = 0
    <Sigma> = 24.59
    <d_lam> = 0
    <Phi_h> = 0
    <Phi_hx> = 0
    <Phi_hy> = 0
    <LamType> = 0
    <LamFill> = 1
    <NStrands> = 0
    <WireD> = 0
    <BHPoints> = 0
  <EndBlock>
[CircuitProps]  = 1
  <BeginCircuit>
    <CircuitName> = "C1"
    <TotalAmps_re> = 2
    <TotalAmps_im> = 0
    <CircuitType> = 1
  <EndCircuit>
[NumPoints] = 93
-35.5	-30.5	0	2
-35.5	30.5	0	2
-30.5	-35.5	0	2
30.5	-35.5	0	2
-30.5	35.5	0	2
30.5	35.5	0	2
35.5	-30.5	0	2
35.5	30.5	0	2
17.918001836999998	-28.170504196	0	2
7.4360237759999999	-32.552057495	0	2
32.589495151000001	-7.2496139419999999	0	2
28.275843433999999	-17.759717759000001	0	2
28.170504196	17.918001836999998	0	2
32.552057495	7.4360237759999999	0	2
7.2496139419999999	32.589495151000001	0	2
17.759717759000001	28.275843433999999	0	2
-17.918001836999998	28.170504196	0	2
-7.4360237759999999	32.552057495	0	2
-32.589495151000001	7.2496139419999999	0	2
-28.275843433999999	17.759717759000001	0	2
-28.170504196	-17.918001836999998	0	2
-32.552057495	-7.4360237759999999	0	2
-7.2496139419999999	-32.589495151000001	0	2
-17.759717759000001	-28.275843433999999	0	2
-2.020298376	-29.044160523999999	0	2
-1.974261324	-23.416923200999999	0	2
2.1841557169999999	-29.102676685999999	0	2
1.9716779149999999	-23.417140863	0	2
19.108756179	-21.965889541999999	0	2
15.162251619999999	-17.954278760000001	0	2
22.123131355000002	-19.034268717	0	2
17.952605924	-15.164232276	0	2
29.044160523999999	-2.020298376	0	2
23.416923200999999	-1.974261324	0	2
29.102676685999999	2.1841557169999999	0	2
23.417140863	1.9716779149999999	0	2
21.965889541999999	19.108756179	0	2
17.954278760000001	15.162251619999999	0	2
19.034268717	22.123131355000002	0	2
15.164232276	17.952605924	0	2
2.020298376	29.044160523999999	0	2
1.974261324	23.416923200999999	0	2
-2.1841557169999999	29.102676685999999	0	2
-1.9716779149999999	23.417140863	0	2
-19.108756179	21.965889541999999	0	2
-15.162251619999999	17.954278760000001	0	2
-22.123131355000002	19.034268717	0	2
-17.952605924	15.164232276	0	2
-29.044160523999999	2.020298376	0	2
-23.416923200999999	1.974261324	0	2
-29.102676685999999	-2.1841557169999999	0	2
-23.417140863	-1.9716779149999999	0	2
-21.965889541999999	-19.108756179	0	2
-17.954278760000001	-15.162251619999999	0	2
-19.034268717	-22.123131355000002	0	2
-15.164232276	-17.952605924	0	2
17.747581549	15.033777719	0	2
7.9059615159999996	5.8272277030000001	0	2
15.046463962000001	17.736827383000001	0	2
4.8885676230000001	8.234410059	0	2
7.7253136189999996	-1.8880367220000001	0	2
23.182459764000001	-1.8880367220000001	0	2
23.186567363999998	1.8369042600000001	0	2
8.8498183709999996	1.8369042600000001	0	2
-15.033777719	17.747581549	0	2
-5.8272277030000001	7.9059615159999996	0	2
-17.736827383000001	15.046463962000001	0	2
-8.234410059	4.8885676230000001	0	2
1.8880367220000001	7.7253136189999996	0	2
1.8880367220000001	23.182459764000001	0	2
-1.8369042600000001	23.186567363999998	0	2
-1.8369042600000001	8.8498183709999996	0	2
-17.747581549	-15.033777719	0	2
-7.9059615159999996	-5.8272277030000001	0	2
-15.046463962000001	-17.736827383000001	0	2
-4.8885676230000001	-8.234410059	0	2
-7.7253136189999996	1.8880367220000001	0	2
-23.182459764000001	1.8880367220000001	0	2
-23.186567363999998	-1.8369042600000001	0	2
-8.8498183709999996	-1.8369042600000001	0	2
15.033777719	-17.747581549	0	2
5.8272277030000001	-7.9059615159999996	0	2
17.736827383000001	-15.046463962000001	0	2
8.234410059	-4.8885676230000001	0	2
-1.8880367220000001	-7.7253136189999996	0	2
-1.8880367220000001	-23.182459764000001	0	2
1.8369042600000001	-23.186567363999998	0	2
1.8369042600000001	-8.8498183709999996	0	2
23.5	0	0	2
23.366842156000001	0	0	2
-23.366842156000001	0	0	2
23.464658831000001	0	0	2
-23.464658831000001	0	0	2
[NumSegments] = 60
0	1	-1	2	0	2
2	3	-1	2	0	2
4	5	-1	2	0	2
6	7	-1	2	0	2
8	9	-1	0	0	2
10	11	-1	0	0	2
12	13	-1	0	0	2
14	15	-1	0	0	2
16	17	-1	0	0	2
18	19	-1	0	0	2
20	21	-1	0	0	2
22	23	-1	0	0	2
24	25	-1	0	0	2
26	27	-1	0	0	2
28	29	-1	0	0	2
30	31	-1	0	0	2
32	33	-1	0	0	2
34	35	-1	0	0	2
36	37	-1	0	0	2
38	39	-1	0	0	2
40	41	-1	0	0	2
42	43	-1	0	0	2
44	45	-1	0	0	2
46	47	-1	0	0	2
48	49	-1	0	0	2
50	51	-1	0	0	2
52	53	-1	0	0	2
54	55	-1	0	0	2
43	17	-1	0	0	0
41	14	-1	0	0	0
39	15	-1	0	0	0
37	12	-1	0	0	0
35	13	-1	0	0	0
33	10	-1	0	0	0
31	11	-1	0	0	0
29	8	-1	0	0	0
27	9	-1	0	0	0
25	22	-1	0	0	0
55	23	-1	0	0	0
53	20	-1	0	0	0
51	21	-1	0	0	0
49	18	-1	0	0	0
47	19	-1	0	0	0
16	45	-1	0	0	0
56	57	-1	0	0	2
58	59	-1	0	0	2
61	60	-1	0	0	2
62	63	-1	0	0	2
64	65	-1	0	0	2
66	67	-1	0	0	2
69	68	-1	0	0	2
70	71	-1	0	0	2
72	73	-1	0	0	2
74	75	-1	0	0	2
77	76	-1	0	0	2
78	79	-1	0	0	2
80	81	-1	0	0	2
82	83	-1	0	0	2
85	84	-1	0	0	2
86	87	-1	0	0	2
[NumArcSegments] = 49
0	2	90	5	2	0	2	4.0999999999999996
4	1	90	5	2	0	2	4.0999999999999996
3	6	90	5	2	0	2	4.0999999999999996
7	5	90	5	2	0	2	4.0999999999999996
26	9	111.963774677	5	0	0	2	5
8	28	112.901759867	5	0	0	2	5
30	11	111.963774677	5	0	0	2	5
10	32	112.901759867	5	0	0	2	5
34	13	111.963774677	5	0	0	2	5
12	36	112.90175986700001	5	0	0	2	5
38	15	111.963774677	5	0	0	2	5
14	40	112.90175986700001	5	0	0	2	5
42	17	111.963774677	5	0	0	2	5
16	44	112.90175986700001	5	0	0	2	5
46	19	111.963774677	5	0	0	2	5
18	48	112.90175986700001	5	0	0	2	5
50	21	111.963774677	5	0	0	2	5
20	52	112.901759867	5	0	0	2	5
54	23	111.963774677	5	0	0	2	5
22	24	112.901759867	5	0	0	2	5
25	27	9.6320046900000023	5	0	0	2	5
29	31	9.6320046900000023	5	0	0	2	5
33	88	4.819162832	5	0	0	2	5
88	35	4.8128418579999996	5	0	0	2	5
37	39	9.6320046900000023	5	0	0	2	5
41	43	9.6320046900000023	5	0	0	2	5
45	47	9.6320046900000023	5	0	0	2	5
49	51	9.6320046900000023	5	0	0	2	5
53	55	9.6320046900000023	5	0	0	2	5
89	90	180	5	1	0	2	0.23999999999999999
90	89	180	5	1	0	2	0.23999999999999999
91	92	180	5	1	0	2	0.23999999999999999
92	91	180	5	1	0	2	0.23999999999999999
56	58	9.4239077539999982	5	0	0	2	5
59	60	98.636416343999997	5	0	0	2	5
61	62	9.1857036359999995	5	0	0	2	5
57	63	85.474880956999982	5	0	0	2	5
64	66	9.4239077539999982	5	0	0	2	5
67	68	98.636416344000011	5	0	0	2	5
69	70	9.1857036359999995	5	0	0	2	5
65	71	85.474880957000011	5	0	0	2	5
72	74	9.4239077539999982	5	0	0	2	5
75	76	98.636416343999997	5	0	0	2	5
77	78	9.1857036359999995	5	0	0	2	5
73	79	85.474880956999996	5	0	0	2	5
80	82	9.4239077539999982	5	0	0	2	5
83	84	98.636416343999997	5	0	0	2	5
85	86	9.1857036359999995	5	0	0	2	5
81	87	85.474880956999996	5	0	0	2	5
[NumHoles] = 1
21.829999999999998	-8.4299999999999997	0
[NumBlockLabels] = 23
28.600000000000001	23.199999999999999	2	-1	0	0	0	1	0
2.7000000000000002	28	3	-1	1	0	0	-120	0
-17.399999999999999	21.199999999999999	3	-1	1	0	0	120	0
-20.899999999999999	16.800000000000001	3	-1	1	0	0	-120	0
-27.300000000000001	2.7999999999999998	3	-1	1	0	0	-120	0
-27.600000000000001	-3.1000000000000001	3	-1	1	0	0	120	0
-20.600000000000001	-17	3	-1	1	0	0	120	0
-16.699999999999999	-20.899999999999999	3	-1	1	0	0	-120	0
3.2000000000000002	-26.800000000000001	3	-1	1	0	0	120	0
17.100000000000001	-20.699999999999999	3	-1	1	0	0	120	0
27	-2.5	3	-1	1	0	0	-120	0
27.899999999999999	3.7999999999999998	3	-1	1	0	0	120	0
20.100000000000001	16.199999999999999	3	-1	1	0	0	120	0
17.399999999999999	21.699999999999999	3	-1	1	0	0	-120	0
-2.5	-26.5	3	-1	1	0	0	-120	0
-3.2999999999999998	26.699999999999999	3	-1	1	0	0	120	0
14.640000000000001	22.059999999999999	1	-1	0	0	0	1	0
21.100000000000001	-16.300000000000001	3	-1	1	0	0	-120	0
7.7999999999999998	8.8000000000000007	2	-1	0	0	0	1	0
3.8999999999999999	-6	2	-1	0	0	0	1	0
-6	-2.3999999999999999	2	-1	0	0	0	1	0
-3	6.2000000000000002	2	-1	0	0	0	1	0
0.20000000000000001	-0.20000000000000001	1	-1	0	0	0	1	0
